[TITLE]


[JUNCTIONS]
;ID              	Elev        	Demand      	Pattern         
 0               	11.22738902 	4.82608     	1               	;
 1               	3.6830390532	2.70816     	1               	;
 2               	12.789419473	4.06224     	1               	;
 3               	13.536009889	4.75664     	1               	;
 4               	26.625147642	0.79856     	1               	;
 5               	20.059444147	0.72912     	1               	;
 6               	16.723708531	0.59024     	1               	;
 7               	17.256707031	0.62496     	1               	;
 8               	15.865196706	0.62496     	1               	;
 9               	15.23733139 	1.70128     	1               	;
 10              	13.730749683	0.65968     	1               	;
 11              	14.781837701	0.31248     	1               	;
 12              	13.541372742	0.3472      	1               	;
 13              	14.857444863	0.97216     	1               	;
 14              	17.666960639	1.59712     	1               	;
 15              	16.86976807 	0           	1               	;
 16              	16.662132709	0           	1               	;
 17              	19.234400096	1.5624      	1               	;
 18              	18.842031011	1.84016     	1               	;
 19              	16.282529343	1.70128     	1               	;
 20              	19.525607114	2.56928     	1               	;
 21              	20.077172227	1.63184     	1               	;
 22              	18.175633874	2.98592     	1               	;
 23              	17.549882098	0           	1               	;
 24              	18.823850812	6.944       	1               	;
 25              	13.097171083	2.70816     	1               	;
 26              	13.097171083	2.49984     	1               	;
 27              	19.147003417	0.45136     	1               	;
 28              	24.438623994	0.13888     	1               	;
 29              	18.480781495	0           	1               	;
 30              	19.267623819	0           	1               	;
 31              	16.073029185	1.14576     	1               	;
 32              	15.130784568	1.31936     	1               	;
 33              	16.812463132	0.5208      	1               	;
 34              	14.075133118	0.38192     	1               	;
 35              	17.928346561	0.41664     	1               	;
 36              	31.964378407	0.20832     	1               	;
 37              	20.383278842	1.3888      	1               	;
 38              	33.194887356	0.27776     	1               	;
 39              	16.423529527	0.10416     	1               	;
 40              	16.223364302	0           	1               	;
 41              	19.265306903	0.76384     	1               	;
 42              	25.587308751	0.3472      	1               	;
 43              	16.294171804	0.27776     	1               	;
 44              	19.759940976	0.03472     	1               	;
 45              	19.743478517	1.63184     	1               	;
 46              	19.705611577	1.49296     	1               	;
 47              	23.981109066	0           	1               	;
 48              	25.535496514	0           	1               	;
 49              	17.131301049	0           	1               	;
 50              	20.894580313	0.20832     	1               	;
 51              	23.251469993	1.80544     	1               	;
 52              	24.815802499	1.0416      	1               	;
 53              	15.316539862	1.00688     	1               	;
 54              	15.365944447	1.42352     	1               	;
 55              	26.144149109	0           	1               	;
 56              	17.074346542	0.79856     	1               	;
 57              	30.05911359 	0           	1               	;
 58              	26.371507194	0           	1               	;
 59              	15.078335609	0.41664     	1               	;
 60              	16.962801378	0.59024     	1               	;
 61              	25.711575831	0.1736      	1               	;
 62              	14.192211659	0           	1               	;
 63              	16.441741015	0.38192     	1               	;
 64              	19.472221064	0.38192     	1               	;
 65              	22.795675934	2.0832      	1               	;
 66              	16.812463132	0.10416     	1               	;
 67              	16.526198137	0           	1               	;
 68              	3.4976799501	0           	1               	;
 69              	16.973251746	0.20832     	1               	;
 70              	27.835240827	1.9096      	1               	;
 71              	13.609434676	0           	1               	;
 72              	12.671013517	2.2568      	1               	;
 73              	24.118022969	0.24304     	1               	;
 74              	42.218448609	6.14544     	1               	;
 75              	15.456707772	1.0416      	1               	;
 76              	18.530021815	0.55552     	1               	;
 77              	14.535445241	1.24992     	1               	;
 78              	13.019968988	0.868       	1               	;
 79              	13.019968988	0           	1               	;
 80              	14.170785276	0           	1               	;
 81              	14.956394831	0           	1               	;
 82              	13.785878504	0           	1               	;
 83              	14.666350182	0           	1               	;
 84              	14.666350182	0           	1               	;
 85              	14.53139807 	0           	1               	;
 86              	15.076946399	0           	1               	;
 87              	15.076946399	0           	1               	;
 88              	15.021637669	0           	1               	;
 89              	15.021637669	0           	1               	;
 90              	14.988704929	0           	1               	;
 91              	14.988704929	0           	1               	;
 92              	15.195870963	0           	1               	;
 93              	15.195870963	0           	1               	;
 94              	15.215624974	0           	1               	;
 95              	15.215624974	0           	1               	;
 96              	15.362585623	0           	1               	;
 97              	15.362585623	0           	1               	;
 98              	14.859794632	0           	1               	;
 99              	15.464285853	0           	1               	;
 100             	15.360381347	0           	1               	;
 101             	15.360381347	0           	1               	;
 102             	15.092656368	0           	1               	;
 103             	16.46425311 	0.65968     	1               	;
 104             	13.250683549	0.31248     	1               	;
 105             	24.965740251	0.31248     	1               	;
 106             	24.217085575	0.24304     	1               	;
 107             	16.655501105	0.45136     	1               	;
 108             	22.923472359	0           	1               	;
 109             	24.756413745	0.27776     	1               	;
 110             	16.321119048	0           	1               	;
 111             	22.211853913	0.868       	1               	;
 112             	19.328564484	0.24304     	1               	;
 113             	16.399819081	0.93744     	1               	;
 114             	16.399819081	0           	1               	;
 115             	16.399819081	0           	1               	;
 116             	21.882551549	0.03472     	1               	;
 117             	67.425393683	3.36784     	1               	;
 118             	20.260878122	2.18736     	1               	;
 119             	18.876415538	0           	1               	;
 120             	17.307845001	2.56928     	1               	;
 121             	23.585426526	1.18048     	1               	;
 122             	22.460700959	0.65968     	1               	;
 123             	20.146199412	0.5208      	1               	;
 124             	20.146199412	0           	1               	;
 125             	20.475285886	1.42352     	1               	;
 126             	21.275644853	1.42352     	1               	;
 127             	11.678356824	0           	1               	;
 128             	22.229383311	0.79856     	1               	;
 129             	22.694565493	0.1736      	1               	;
 130             	19.471565569	0.48608     	1               	;
 131             	14.120188598	0.27776     	1               	;
 132             	14.120188598	0.41664     	1               	;
 133             	15.205420221	0.06944     	1               	;
 134             	16.107377731	0           	1               	;
 135             	15.995776247	0.1736      	1               	;
 136             	15.792410205	1.31936     	1               	;
 137             	13.874043317	0.20832     	1               	;
 138             	15.727771236	1.14576     	1               	;
 139             	17.070620079	0.5208      	1               	;
 140             	16.847916163	0           	1               	;
 141             	17.320207098	1.11104     	1               	;
 142             	16.41229851 	1.11104     	1               	;
 143             	14.737921124	1.52768     	1               	;
 144             	18.456298222	0.72912     	1               	;
 145             	23.256455819	0.59024     	1               	;
 146             	23.858558162	0.27776     	1               	;
 147             	23.858558162	0           	1               	;
 148             	23.525735838	0           	1               	;
 149             	16.918596946	0           	1               	;
 150             	17.58697934 	0.3472      	1               	;
 151             	18.20741676 	0.93744     	1               	;
 152             	18.691509727	0.1736      	1               	;
 153             	19.121963208	0           	1               	;
 154             	18.272288828	0.06944     	1               	;
 155             	20.048669943	1.66656     	1               	;
 156             	21.389419325	1.3888      	1               	;
 157             	14.592463889	0           	1               	;
 158             	18.763919202	0.59024     	1               	;
 159             	18.421373968	0.59024     	1               	;
 160             	18.421373968	0           	1               	;
 161             	18.272288828	0           	1               	;
 162             	23.666740715	0           	1               	;
 163             	23.666740715	0           	1               	;
 164             	23.666740715	0           	1               	;
 165             	23.52112078 	0           	1               	;
 166             	23.666740715	0           	1               	;
 167             	23.666740715	0.13888     	1               	;
 168             	17.805011879	1.45824     	1               	;
 169             	13.585924476	0           	1               	;
 170             	12.844161881	0           	1               	;
 171             	11.296890226	0           	1               	;
 172             	10.892476623	0.868       	1               	;
 173             	17.77683656 	0.65968     	1               	;
 174             	24.503832414	0.13888     	1               	;
 175             	16.41229851 	0.13888     	1               	;
 176             	14.235735565	0.72912     	1               	;
 177             	16.225271338	0.65968     	1               	;
 178             	18.891776641	0.1736      	1               	;
 179             	18.825925241	0.45136     	1               	;
 180             	24.132166948	0.6944      	1               	;
 181             	18.825925241	0.24304     	1               	;
 182             	24.089021633	0.38192     	1               	;
 183             	18.487170612	0.31248     	1               	;
 184             	18.487170612	0           	1               	;
 185             	19.749413951	0.45136     	1               	;
 186             	17.361908447	1.07632     	1               	;
 187             	12.93418445 	0.97216     	1               	;
 188             	14.741791515	0           	1               	;
 189             	21.694898605	0.5208      	1               	;
 190             	15.583585879	1.63184     	1               	;
 191             	24.241753451	1.07632     	1               	;
 192             	21.605149029	0.1736      	1               	;
 193             	19.749514074	0.90272     	1               	;
 194             	19.749514074	0.03472     	1               	;
 195             	24.090234063	1.49296     	1               	;
 196             	19.483777482	0.13888     	1               	;
 197             	11.406635518	0.38192     	1               	;
 198             	11.265627512	0           	1               	;
 199             	8.5002895728	0           	1               	;
 200             	7.8922205084	0           	1               	;
 201             	6.1346199412	0           	1               	;
 202             	14.185869475	0           	1               	;
 203             	16.918596946	0           	1               	;
 204             	16.297003416	0           	1               	;
 205             	16.3650763  	0           	1               	;
 206             	15.120565735	0           	1               	;
 207             	14.80249908 	0           	1               	;
 208             	13.442214705	0           	1               	;
 209             	14.668925228	0           	1               	;
 210             	16.039209416	0           	1               	;
 211             	12.701013739	0.48608     	1               	;
 212             	15.969861524	0           	1               	;
 213             	15.892251896	0           	1               	;
 214             	14.881291414	0           	1               	;
 215             	14.973658276	0           	1               	;
 216             	14.973658276	0           	1               	;
 217             	16.314019681	0.03472     	1               	;
 218             	21.772555166	0.03472     	1               	;
 219             	22.416568491	0           	1               	;
 220             	17.330098966	1.9096      	1               	;
 221             	17.140865952	0.06944     	1               	;
 222             	17.093190058	1.49296     	1               	;
 223             	13.197288113	0           	1               	;
 224             	14.235403907	0           	1               	;
 225             	14.156067152	0           	1               	;
 226             	15.458262811	0           	1               	;
 227             	15.380937909	0           	1               	;
 228             	14.407105959	0           	1               	;
 229             	20.427777385	1.77072     	1               	;
 230             	21.768977323	0.79856     	1               	;
 231             	21.197389117	0.1736      	1               	;
 232             	20.999813017	1.07632     	1               	;
 233             	17.406723005	0           	1               	;
 234             	16.301363472	0           	1               	;
 235             	15.684464785	0           	1               	;
 236             	15.897340975	0           	1               	;
 237             	15.412016804	0           	1               	;
 238             	17.626628162	0           	1               	;
 239             	17.626628162	0.06944     	1               	;
 240             	22.053100618	0.1736      	1               	;
 241             	20.997058062	0           	1               	;
 242             	21.621076454	0.90272     	1               	;
 243             	20.733370869	1.736       	1               	;
 244             	14.559443541	4.02752     	1               	;
 245             	14.787524391	1.59712     	1               	;
 246             	13.480928001	0           	1               	;
 247             	14.559443541	3.50672     	1               	;
 248             	16.972840302	0           	1               	;
 249             	16.629480001	0           	1               	;
 250             	16.296383903	1.11104     	1               	;
 251             	14.000813479	0.24304     	1               	;
 252             	14.006533022	0           	1               	;
 253             	17.000807552	0.13888     	1               	;
 254             	17.706224612	0.24304     	1               	;
 255             	25.137917889	0           	1               	;
 256             	25.137917889	0           	1               	;
 257             	22.052779911	0.1736      	1               	;
 258             	20.492860651	0           	1               	;
 259             	20.492860651	0           	1               	;
 260             	20.049818232	1.49296     	1               	;
 261             	13.948112648	0.31248     	1               	;
 262             	13.878914941	0           	1               	;
 263             	14.172468598	1.31936     	1               	;
 264             	14.97214704 	1.31936     	1               	;
 265             	16.38363509 	0           	1               	;
 266             	16.95008572 	0.31248     	1               	;
 267             	16.35639217 	0           	1               	;
 268             	15.949516159	0           	1               	;
 269             	17.045415605	0           	1               	;
 270             	23.366470975	0.62496     	1               	;
 271             	18.472942155	0.90272     	1               	;
 272             	41.627530351	1.18048     	1               	;
 273             	22.474533617	0.3472      	1               	;
 274             	21.097060889	1.87488     	1               	;
 275             	16.518002107	1.77072     	1               	;
 276             	17.405559072	1.70128     	1               	;
 277             	17.357044645	0           	1               	;
 278             	17.433660863	0           	1               	;
 279             	17.608879745	0           	1               	;
 280             	17.633383355	0           	1               	;
 281             	17.58697934 	0           	1               	;
 282             	15.740834196	1.28464     	1               	;
 283             	14.782025432	0.38192     	1               	;
 284             	18.482870004	2.01376     	1               	;
 285             	20.610364716	0.97216     	1               	;
 286             	16.947626442	2.81232     	1               	;
 287             	16.631110134	0.76384     	1               	;
 288             	14.412977251	0.48608     	1               	;
 289             	17.146785741	0           	1               	;
 290             	17.146785741	0.868       	1               	;
 291             	21.385459762	0.97216     	1               	;
 292             	20.828336243	0           	1               	;
 293             	18.317281731	1.07632     	1               	;
 294             	20.694507389	0.1736      	1               	;
 295             	20.694507389	0           	1               	;
 296             	20.940019077	0.97216     	1               	;
 297             	20.940019077	0           	1               	;
 298             	11.188100016	0           	1               	;
 299             	21.385459762	0.03472     	1               	;
 300             	24.168666579	0.24304     	1               	;
 301             	17.185017193	0.5208      	1               	;
 302             	19.750660799	0           	1               	;
 303             	16.917157674	0.13888     	1               	;
 304             	21.667360008	1.35408     	1               	;
 305             	16.241751005	0.06944     	1               	;
 306             	15.632672886	0           	1               	;
 307             	14.144266684	0.06944     	1               	;
 308             	14.658549952	1.11104     	1               	;
 309             	14.020683259	2.29152     	1               	;
 310             	14.905457109	0.72912     	1               	;
 311             	15.660863849	0.72912     	1               	;
 312             	15.603400904	0           	1               	;
 313             	22.443176255	0.868       	1               	;
 314             	179.03168996	1.18048     	1               	;
 315             	165.89112169	0.97216     	1               	;
 316             	17.286958344	0.45136     	1               	;
 317             	19.258085511	0.24304     	1               	;
 318             	17.331481919	0.72912     	1               	;
 319             	17.554631696	0.20832     	1               	;
 320             	21.92814832 	0           	1               	;
 321             	21.248110949	0           	1               	;
 322             	19.052444793	0.3472      	1               	;
 323             	19.281667674	2.53456     	1               	;
 324             	14.646993534	1.49296     	1               	;
 325             	14.870858255	3.15952     	1               	;
 326             	15.685719455	0.83328     	1               	;
 327             	21.182273629	0           	1               	;
 328             	28.123076506	0           	1               	;
 329             	40.354337592	0           	1               	;
 330             	17.668812919	1.18048     	1               	;
 331             	21.044195793	0.868       	1               	;
 332             	18.92726096 	1.45824     	1               	;
 333             	16.638624074	2.49984     	1               	;
 334             	16.163004039	0           	1               	;
 335             	12.762076429	0           	1               	;
 336             	18.604213171	1.63184     	1               	;
 337             	26.263564903	0.3472      	1               	;
 338             	20.795691358	0.41664     	1               	;
 339             	18.137582331	0.27776     	1               	;
 340             	17.076763581	0.31248     	1               	;
 341             	20.164869276	1.94432     	1               	;
 342             	20.462961335	0.06944     	1               	;
 343             	15.656674315	0.10416     	1               	;
 344             	14.55864412 	0.06944     	1               	;
 345             	14.351894223	0           	1               	;
 346             	15.121626416	0           	1               	;
 347             	17.413633076	0           	1               	;
 348             	17.59115323 	0.03472     	1               	;
 349             	14.339350653	0.41664     	1               	;
 350             	22.161634262	2.81232     	1               	;
 351             	17.525519286	1.77072     	1               	;
 352             	16.739926939	0.10416     	1               	;
 353             	20.371329753	0.10416     	1               	;
 354             	19.877385593	0.97216     	1               	;
 355             	51.051994634	0.31248     	1               	;
 356             	118.12600564	1.63184     	1               	;
 357             	123.29886279	0.90272     	1               	;
 358             	121.39911101	0.3472      	1               	;
 359             	123.26509621	1.2152      	1               	;
 360             	12.309619292	1.66656     	1               	;
 361             	138.51626339	1.35408     	1               	;
 362             	11.334502165	0           	1               	;
 363             	17.978225167	0           	1               	;
 364             	22.471730165	0           	1               	;
 365             	22.471730165	0           	1               	;
 366             	22.764457805	0           	1               	;
 367             	21.753356526	0.65968     	1               	;
 368             	17.714467574	0           	1               	;
 369             	4.054327493 	1.0416      	1               	;
 370             	14.027297653	0           	1               	;
 371             	21.422613324	0           	1               	;
 372             	17.507531512	0           	1               	;
 373             	43.044985123	0           	1               	;
 374             	35.507785367	0           	1               	;
 375             	15.695677029	0.27776     	1               	;
 376             	26.109529918	0           	1               	;
 377             	21.670554567	0.10416     	1               	;
 378             	20.321283753	0.62496     	1               	;
 379             	17.534633634	0           	1               	;
 380             	17.586943359	0           	1               	;
 381             	22.079143624	0           	1               	;
 382             	26.579059641	0           	1               	;
 383             	28.040011724	0           	1               	;
 384             	22.085085316	0           	1               	;
 385             	22.416568491	0           	1               	;
 386             	106.30499972	0.79856     	1               	;
 387             	15.163387213	0           	1               	;
 388             	15.256171777	0           	1               	;
 389             	25.589947938	0           	1               	;
 390             	14.539357871	0           	1               	;
 391             	17.847055838	0           	1               	;
 392             	17.863302406	0           	1               	;
 393             	17.968427165	0           	1               	;
 394             	17.657090673	1.97904     	1               	;
 395             	16.402614711	0           	1               	;
 396             	15.205252828	0.31248     	1               	;
 397             	16.223985379	1.3888      	1               	;
 398             	13.658854905	2.29152     	1               	;
 399             	16.607304258	0           	1               	;
 400             	16.80510407 	0.62496     	1               	;
 401             	18.388337976	1.14576     	1               	;
 402             	16.861750385	0.1736      	1               	;
 403             	5.5676041626	0           	1               	;
 404             	5.8964113864	0           	1               	;
 405             	18.388337976	0.72912     	1               	;
 406             	15.182656253	0           	1               	;
 407             	15.205252828	0           	1               	;
 408             	127.05024459	1.5624      	1               	;
 409             	110.05117511	1.00688     	1               	;
 410             	20.015059807	0.45136     	1               	;
 411             	19.684185193	0.13888     	1               	;
 412             	176.46014847	1.24992     	1               	;
 413             	18.106576965	1.0416      	1               	;
 414             	16.159444969	0.38192     	1               	;
 415             	15.439757212	0           	1               	;
 416             	30.955426649	23.19296    	1               	;
 417             	29.345444181	0.65968     	1               	;
 418             	18.284333347	0           	1               	;
 419             	16.099056547	0.65968     	1               	;
 420             	16.432346634	0.41664     	1               	;
 421             	10.033730916	0.41664     	1               	;
 422             	26.114797342	0.10416     	1               	;
 423             	18.898245544	2.32624     	1               	;
 424             	20.034990599	1.42352     	1               	;
 425             	58.740962522	1.5624      	1               	;
 426             	17.178687524	0.3472      	1               	;
 427             	15.655857684	0           	1               	;
 428             	14.579250744	0.3472      	1               	;
 429             	17.648240713	0.3472      	1               	;
 430             	21.197281172	0.20832     	1               	;
 431             	24.180844074	1.9096      	1               	;
 432             	17.930902834	0           	1               	;
 433             	17.930902834	0.24304     	1               	;
 434             	22.133313452	2.0832      	1               	;
 435             	16.953255248	1.35408     	1               	;
 436             	18.665013038	0.62496     	1               	;
 437             	18.487829236	0           	1               	;
 438             	17.884037313	0.27776     	1               	;
 439             	17.445868082	1.87488     	1               	;
 440             	94.007356899	0.27776     	1               	;
 441             	72.744155493	0.55552     	1               	;
 442             	20.509274613	1.0416      	1               	;
 443             	20.509274613	0           	1               	;
 444             	20.509274613	0.41664     	1               	;
 445             	18.233821148	1.31936     	1               	;
 446             	19.690281763	0.03472     	1               	;
 447             	19.690281763	0           	1               	;
 448             	13.289841141	1.28464     	1               	;
 449             	19.099890716	0.3472      	1               	;
 450             	43.699084304	0           	1               	;
 451             	145.98810141	1.63184     	1               	;
 452             	124.97574013	1.49296     	1               	;
 453             	68.288293723	0.65968     	1               	;
 454             	102.03447868	0.27776     	1               	;
 455             	20.267908655	0           	1               	;
 456             	17.596611514	1.94432     	1               	;
 457             	182.7250378 	1.63184     	1               	;
 458             	17.427969479	0.06944     	1               	;
 459             	17.596611514	1.94432     	1               	;
 460             	17.596611514	0           	1               	;
 461             	10.63456138 	0           	1               	;
 462             	16.86240588 	0.45136     	1               	;
 463             	18.857949049	0           	1               	;
 464             	15.439757212	2.32624     	1               	;
 465             	22.161634262	0           	1               	;
 466             	18.110944843	0.31248     	1               	;
 467             	13.94258553 	1.42352     	1               	;
 468             	19.461063575	0           	1               	;
 469             	19.998975939	0           	1               	;
 470             	17.046219721	0           	1               	;
 471             	15.65824187 	2.04848     	1               	;
 472             	13.656189123	1.00688     	1               	;
 473             	16.590034555	2.32624     	1               	;