[TITLE]

[JUNCTIONS]
;ID                      Elevation       Demand Pattern                 
 J-114                   15.411927631               0                            ;
 J-173                   22.907623156   0.11111111111                            ;
 J-316                   17.548486629    1.1666666667                            ;
 J-92                      12.9377576    2.9444444444                            ;
 J-189                   18.036398362   0.83333333333                            ;
 J-278                   20.492283378    1.4444444444                            ;
 J-133                   16.410086412    1.3333333333                            ;
 J-260                   19.749086986    1.3333333333                            ;
 J-318                   13.902024647    1.2777777778                            ;
 J-263                   20.077352136    1.1111111111                            ;
 J-266                   20.427437905    1.8888888889                            ;
 J-36                    18.064381257    2.1666666667                            ;
 J-99                    17.697351185   0.55555555556                            ;
 J-224                   16.275658382    1.2222222222                            ;
 J-204                   17.532657763               0                            ;
 J-102                   13.782228698             2.5                            ;
 J-202                   15.899684485   0.72222222222                            ;
 J-371                   13.229870421               0                            ;
 J-365                   51.736988108    1.1111111111                            ;
 J-183                   19.337885336               0                            ;
 J-281                   19.503806833   0.61111111111                            ;
 J-298                   20.608061881    1.3333333333                            ;
 J-228                    21.79778467  0.055555555556                            ;
 J-160                   19.267544033    1.3333333333                            ;
 J-198                   18.303671221               0                            ;
 J-122                   20.859605997    3.0555555556                            ;
 J-196                   17.585094207   0.72222222222                            ;
 J-30                    23.621758764   0.77777777778                            ;
 J-200                    17.71375576               0                            ;
 J-50                    16.166836884   0.83333333333                            ;
 J-258                   18.271331399   0.38888888889                            ;
 J-93                    15.171706833   0.16666666667                            ;
 J-44                    20.017597306    2.6666666667                            ;
 J-329                   29.346267069    13.777777778                            ;
 J-393                   136.83208956   0.88888888889                            ;
 J-227                    18.85508302               0                            ;
 J-184                   18.832434819   0.61111111111                            ;
 J-180                   18.322704032    1.2222222222                            ;
 J-311                   12.759345723             2.5                            ;
 J-86                     43.01477605               0                            ;
 J-162                   16.811208462    1.3888888889                            ;
 J-188                   27.998707739               0                            ;
 J-107                   16.222084601    1.4444444444                            ;
 J-83                     43.01477605               0                            ;
 J-326                   16.071657183   0.55555555556                            ;
 J-360                    12.20499906    2.1666666667                            ;
 J-357                   14.485613568    3.6666666667                            ;
 J-325                    11.17833252               1                            ;
 J-154                   14.247196553    1.8888888889                            ;
 J-138                   14.880919081               0                            ;
 J-19                    21.108406109   0.33333333333                            ;
 J-5                     27.316445754   0.38888888889                            ;
 J-328                   30.705985122    1.7777777778                            ;
 J-53                    28.044445308               0                            ;
 J-192                   17.329681264   0.77777777778                            ;
 J-276                   21.130455135   0.72222222222                            ;
 J-96                    16.311235002  0.055555555556                            ;
 J-23                    21.925865822   0.38888888889                            ;
 J-334                   15.364872815   0.66666666667                            ;
 J-411                   13.206538566   0.61111111111                            ;
 J-342                   15.733379704   0.83333333333                            ;
 J-34                    21.095981435    3.3333333333                            ;
 J-29                    22.281438034    4.1111111111                            ;
 J-415                   43.320777848    4.2777777778                            ;
 J-131                   16.396910813    1.9444444444                            ;
 J-43                    17.272912924    1.9444444444                            ;
 J-312                   18.057305356               0                            ;
 J-24                    22.668387946    3.0555555556                            ;
 J-151                   20.748237612    1.1111111111                            ;
 J-208                   16.661280096   0.66666666667                            ;
 J-139                   12.308065034    1.5555555556                            ;
 J-338                    16.16266143               0                            ;
 J-140                   25.712677187             0.5                            ;
 J-277                   19.446803829    2.8333333333                            ;
 J-6                     29.805632714   0.33333333333                            ;
 J-245                   21.531243963               0                            ;
 J-136                   14.539070017               0                            ;
 J-376                   13.864171787    2.3333333333                            ;
 J-203                   17.380640888    1.7777777778                            ;
 J-267                   15.800310558   0.72222222222                            ;
 J-111                   16.989158833    2.7222222222                            ;
 J-379                   94.008095308   0.66666666667                            ;
 J-150                   16.760384943               0                            ;
 J-282                   22.459712241   0.83333333333                            ;
 J-48                    19.143247229    1.1111111111                            ;
 J-220                   13.904441686   0.83333333333                            ;
 J-37                    23.230548919    1.7222222222                            ;
 J-242                    17.97768544             0.5                            ;
 J-320                    36.07032493   0.66666666667                            ;
 J-257                   18.271331399   0.94444444444                            ;
 J-226                   17.430057989   0.11111111111                            ;
 J-359                   43.710570323   0.33333333333                            ;
 J-142                   26.146204766   0.27777777778                            ;
 J-261                   18.912040655   0.88888888889                            ;
 J-148                   15.120953713               0                            ;
 J-385                   16.986380412               0                            ;
 J-364                   12.720613655    1.2777777778                            ;
 J-386                   115.17100447   0.88888888889                            ;
 J-39                    26.119664272   0.55555555556                            ;
 J-58                    21.770826475               0                            ;
 J-211                   17.840795004   0.66666666667                            ;
 J-89                    20.511334962    1.8333333333                            ;
 J-100                   15.757437453  0.055555555556                            ;
 J-288                   23.858515922   0.22222222222                            ;
 J-301                   20.601891783   0.88888888889                            ;
 J-286                   23.520543506   0.38888888889                            ;
 J-287                   20.982210092    1.6666666667                            ;
 J-205                   17.626196381   0.55555555556                            ;
 J-388                   123.29916316   0.94444444444                            ;
 J-255                   20.115979387               0                            ;
 J-344                   17.233772541   0.55555555556                            ;
 J-390                   106.38817715    1.0555555556                            ;
 J-313                   14.172803386             1.5                            ;
 J-9                     35.816299634   0.94444444444                            ;
 J-112                   14.437186749   0.44444444444                            ;
 J-20                    18.409485892   0.38888888889                            ;
 J-308                   14.479459114    1.6666666667                            ;
 J-229                   16.517501491    1.7777777778                            ;
 J-46                    26.267932782    5.7222222222                            ;
 J-126                   25.101347858   0.94444444444                            ;
 J-170                   16.650058466    1.1111111111                            ;
 J-254                   22.473023945   0.27777777778                            ;
 J-269                   16.096243708   0.83333333333                            ;
 J-146                   24.764899194    1.1111111111                            ;
 J-303                   14.780371834   0.55555555556                            ;
 J-335                   12.865466239   0.94444444444                            ;
 J-10                    26.693050004   0.61111111111                            ;
 J-351                    14.34357304   0.94444444444                            ;
 J-375                    15.09787373               0                            ;
 J-378                   12.386283224               0                            ;
 J-61                    25.111403991               0                            ;
 J-235                   20.796437589   0.38888888889                            ;
 J-113                    15.18705542               0                            ;
 J-240                   20.410116576  0.055555555556                            ;
 J-191                   18.046620324               0                            ;
 J-380                    102.0456612   0.83333333333                            ;
 J-270                   17.446168451    1.3333333333                            ;
 J-95                    15.655577652   0.16666666667                            ;
 J-352                   14.576900975   0.66666666667                            ;
 J-149                    15.89423246               0                            ;
 J-123                    20.45156136   0.83333333333                            ;
 J-289                   23.675794051   0.22222222222                            ;
 J-210                   17.329726632    1.5555555556                            ;
 J-345                   16.623987301   0.88888888889                            ;
 J-355                   12.785433315   0.83333333333                            ;
 J-106                   14.904477778   0.22222222222                            ;
 J-264                    19.52492346    3.2222222222                            ;
 J-363                   12.041519633    1.5555555556                            ;
 J-104                   13.651991767   0.94444444444                            ;
 J-230                   16.179275638   0.22222222222                            ;
 J-144                   19.600744948    1.6111111111                            ;
 J-294                   24.110465225    1.4444444444                            ;
 J-12                    17.696953821   0.44444444444                            ;
 J-75                    24.167961023  0.055555555556                            ;
 J-332                   11.693459014    1.5555555556                            ;
 J-147                   14.559726703   0.16666666667                            ;
 J-174                   15.728259337   0.77777777778                            ;
 J-252                   11.274019877   0.44444444444                            ;
 J-259                   18.897956125   0.22222222222                            ;
 J-66                    21.620025159   0.38888888889                            ;
 J-41                    18.573498788    1.2777777778                            ;
 J-234                   20.819368951    1.0555555556                            ;
 J-284                   20.999972589   0.72222222222                            ;
 J-119                   17.307557146    3.7777777778                            ;
 J-69                    22.219605646   0.44444444444                            ;
 J-55                    20.239228026    1.6111111111                            ;
 J-181                   17.416818248    1.1666666667                            ;
 J-306                   13.980238144   0.77777777778                            ;
 J-317                   16.767463972    1.5555555556                            ;
 J-300                    13.28864592    1.3888888889                            ;
 J-337                   18.289322302               0                            ;
 J-182                   15.204339203    2.8333333333                            ;
 J-179                   193.70732345               0                            ;
 J-213                   17.510923188               0                            ;
 J-117                   13.999785651   0.66666666667                            ;
 J-361                   12.537796353               0                            ;
 J-310                    13.49053045   0.22222222222                            ;
 J-401                   176.45823361    1.0555555556                            ;
 J-155                   13.533625703   0.27777777778                            ;
 J-21                    20.568240972    2.2777777778                            ;
 J-399                   38.796588192   0.27777777778                            ;
 J-172                   16.319141613   0.11111111111                            ;
 J-346                   14.531113344   0.11111111111                            ;
 J-268                   16.432152645   0.16666666667                            ;
 J-57                    16.587916322    2.0555555556                            ;
 J-319                   17.050848858   0.83333333333                            ;
 J-168                   15.726734021   0.22222222222                            ;
 J-347                   16.819172957    1.1111111111                            ;
 J-410                   16.570824964               0                            ;
 J-362                   12.537796353    1.1111111111                            ;
 J-163                   16.962230362    1.6666666667                            ;
 J-72                    16.100625666   0.44444444444                            ;
 J-178                   193.70732345               0                            ;
 J-275                   19.639157873    1.3888888889                            ;
 J-387                   124.98719173   0.83333333333                            ;
 J-283                   22.459712241   0.61111111111                            ;
 J-323                   16.942934727   0.38888888889                            ;
 J-28                    22.797609565    3.3333333333                            ;
 J-339                   15.455157425   0.77777777778                            ;
 J-295                     21.3868302   0.66666666667                            ;
 J-395                   17.597099615               0                            ;
 J-193                   15.077367229   0.94444444444                            ;
 J-217                   18.197750169   0.77777777778                            ;
 J-239                   21.422976271               0                            ;
 J-15                    22.550295657   0.11111111111                            ;
 J-389                   118.49228166   0.94444444444                            ;
 J-406                    12.80974059             0.5                            ;
 J-31                    23.120879501    2.1111111111                            ;
 J-129                   15.179946667   0.16666666667                            ;
 J-349                   13.897797567    1.4444444444                            ;
 J-253                   18.893450577   0.44444444444                            ;
 J-369                   15.193392911   0.38888888889                            ;
 J-384                   11.245598943               7                            ;
 J-62                    22.052171349   0.22222222222                            ;
 J-135                    31.97260729   0.22222222222                            ;
 J-190                   18.136252568    1.2222222222                            ;
 J-322                   16.661400557               0                            ;
 J-1                     164.36528033    12.944444444                            ;
 J-73                    15.659865745    2.0555555556                            ;
 J-251                    20.00804179   0.11111111111                            ;
 J-152                    14.46415746    1.3888888889                            ;
 J-128                   29.584992276   0.66666666667                            ;
 J-127                   15.825895187    1.2222222222                            ;
 J-214                    21.80698819   0.72222222222                            ;
 J-292                   24.049491707   0.44444444444                            ;
 J-216                   17.124677268    1.3888888889                            ;
 J-272                   19.041978781    1.4444444444                            ;
 J-309                   24.733787447   0.72222222222                            ;
 J-244                   14.229631174   0.44444444444                            ;
 J-98                    15.896320969               0                            ;
 J-141                   21.294644811               0                            ;
 J-49                     26.11949375               0                            ;
 J-164                   14.620973995    3.6111111111                            ;
 J-372                   15.193392911   0.66666666667                            ;
 J-405                    16.92134095               0                            ;
 J-13                    29.990538525   0.16666666667                            ;
 J-274                   19.050284321   0.38888888889                            ;
 J-331                   17.526129412             0.5                            ;
 J-8                     26.225863792   0.83333333333                            ;
 J-391                   137.71893158    1.1111111111                            ;
 J-51                     14.60927365             2.5                            ;
 J-177                   17.289345659   0.11111111111                            ;
 J-279                   23.874419881   0.22222222222                            ;
 J-161                   17.034677383    1.7777777778                            ;
 J-356                   12.632737479    2.6111111111                            ;
 J-394                    123.2683377               1                            ;
 J-290                   24.077351012   0.33333333333                            ;
 J-238                    19.46035489               0                            ;
 J-408                   64.672328669    4.1111111111                            ;
 J-84                    42.870601644               0                            ;
 J-199                   17.507148227  0.055555555556                            ;
 J-221                   14.074926614    1.9444444444                            ;
 J-77                    22.008286061               0                            ;
 J-90                    14.373658523               0                            ;
 J-233                   17.071291218    1.1666666667                            ;
 J-396                   90.563722796   0.66666666667                            ;
 J-248                    18.30577381   0.94444444444                            ;
 J-64                    17.009558953    2.4444444444                            ;
 J-110                   20.889976206   0.77777777778                            ;
 J-250                   20.014409005             0.5                            ;
 J-236                    19.25830766  0.055555555556                            ;
 J-232                   19.371231084   0.55555555556                            ;
 J-11                    22.002428848   0.55555555556                            ;
 J-85                     42.82231406               0                            ;
 J-71                    15.087905205    1.8333333333                            ;
 J-87                    16.736674497    2.3888888889                            ;
 J-94                    24.783525254    4.1666666667                            ;
 J-341                   15.315038013   0.38888888889                            ;
 J-400                    19.65562659               0                            ;
 J-382                   3.6011698834   0.83333333333                            ;
 J-353                   21.328542802               0                            ;
 J-299                   10.246201137  0.055555555556                            ;
 J-307                   19.129070397   0.44444444444                            ;
 J-63                    13.553365635    1.7222222222                            ;
 J-304                   24.815484921    1.2222222222                            ;
 J-16                    21.303163113   0.33333333333                            ;
 J-206                   16.617884473    1.6111111111                            ;
 J-166                   17.971197764    1.0555555556                            ;
 J-26                     23.38217938    18.222222222                            ;
 J-116                   14.235385134               0                            ;
 J-134                   18.434374351               1                            ;
 J-81                    15.717732312   0.77777777778                            ;
 J-124                   14.143240421   0.11111111111                            ;
 J-120                   20.927550599    1.4444444444                            ;
 J-3                     48.491920386    1.7222222222                            ;
 J-247                   17.823148274    2.2777777778                            ;
 J-262                   20.919806688   0.55555555556                            ;
 J-157                   15.830023708    1.9444444444                            ;
 J-103                   26.361350938   0.27777777778                            ;
 J-271                   17.862607801    2.1111111111                            ;
 J-25                    22.370582178             0.5                            ;
 J-156                   14.782246016               2                            ;
 J-187                   18.448774896    1.2777777778                            ;
 J-293                    22.78505035    1.3333333333                            ;
 J-47                    19.084697008   0.55555555556                            ;
 J-280                   22.227879897   0.88888888889                            ;
 J-78                    14.181284141    2.8333333333                            ;
 J-97                    22.441844928             4.5                            ;
 J-153                   13.729944004    1.1111111111                            ;
 J-158                   16.282099126    2.3333333333                            ;
 J-101                    15.99346246    1.1111111111                            ;
 J-223                   21.693739365   0.11111111111                            ;
 J-373                   44.327705238   0.66666666667                            ;
 J-414                   27.821611545    1.3333333333                            ;
 J-195                   17.287335371   0.72222222222                            ;
 J-215                   16.951662662    1.0555555556                            ;
 J-108                   20.062674688    3.6666666667                            ;
 J-14                    23.259412585   0.72222222222                            ;
 J-175                   16.499832859    1.1666666667                            ;
 J-59                    18.045310899    5.2777777778                            ;
 J-256                   21.417408478               0                            ;
 J-118                   14.785769105    5.2222222222                            ;
 J-209                   20.015771621   0.22222222222                            ;
 J-249                   19.734824111   0.22222222222                            ;
 J-201                   17.847775474   0.11111111111                            ;
 J-377                   14.410946626               0                            ;
 J-241                   20.947468875               0                            ;
 J-291                   21.395849118    1.6111111111                            ;
 J-370                   18.823275103    8.3888888889                            ;
 J-79                    18.231325888    1.2777777778                            ;
 J-33                     20.30352595    2.1666666667                            ;
 J-40                    20.403541292    4.2777777778                            ;
 J-222                   18.612743988               0                            ;
 J-330                   15.128245504    1.3888888889                            ;
 J-91                    24.198953874   0.83333333333                            ;
 J-340                   19.115592864               0                            ;
 J-56                     23.43600347               0                            ;
 J-194                    15.23812299    1.5555555556                            ;
 J-285                   20.383317952    1.6666666667                            ;
 J-137                   13.196637311               0                            ;
 J-398                   11.231779583   0.16666666667                            ;
 J-32                    23.832752949   0.38888888889                            ;
 J-38                    19.604291503    1.6666666667                            ;
 J-305                   19.746704364   0.27777777778                            ;
 J-333                   15.087852015    1.7777777778                            ;
 J-109                   16.095804104    1.0555555556                            ;
 J-404                   165.89597767   0.44444444444                            ;
 J-381                   3.4922850257               0                            ;
 J-167                   15.909546629    3.4444444444                            ;
 J-343                   18.194554046   0.38888888889                            ;
 J-169                   10.752161657               0                            ;
 J-315                   14.341992969   0.33333333333                            ;
 J-125                   16.606883427    7.5555555556                            ;
 J-368                    11.48538092   0.27777777778                            ;
 J-121                   16.841757016   0.88888888889                            ;
 J-65                    15.374375141               0                            ;
 J-225                   16.946245053    1.9444444444                            ;
 J-403                   179.03340457               1                            ;
 J-27                    24.020213468   0.33333333333                            ;
 J-321                   12.267428277    1.5555555556                            ;
 J-407                   18.447066542               0                            ;
 J-42                     20.64437691   0.77777777778                            ;
 J-374                   16.023141193               1                            ;
 J-243                   13.396472443   0.33333333333                            ;
 J-171                   16.275805438   0.88888888889                            ;
 J-143                   17.130011962             0.5                            ;
 J-18                    24.340500043   0.55555555556                            ;
 J-296                   24.392168353   0.72222222222                            ;
 J-412                   13.608469425   0.94444444444                            ;
 J-54                    20.239228026    2.3888888889                            ;